[General]
cmdenv-express-mode = true
cmdenv-autoflush = true
cmdenv-status-frequency = 10000000s

#tkenv-default-config = accident
#tkenv-default-run = 1
ned-path = .

network = scenario

##########################################################
#            Simulation parameters                       #
##########################################################
debug-on-errors = true
print-undisposed = false

sim-time-limit = 200s

**.scalar-recording = true
**.vector-recording = true

**.debug = false
**.coreDebug = false

*.playgroundSizeX = 5000m
*.playgroundSizeY = 1000m
*.playgroundSizeZ = 1000m


##########################################################
# Annotation parameters                                  #
##########################################################
*.annotations.draw = false

##########################################################
# Obstacle parameters                                    #
##########################################################
*.obstacles.debug = false
#*.obstacles.obstacles="<obstacles><type id=building db-per-cut=9 db-per-meter=0.4 /></obstacles>"

##########################################################
#            WorldUtility parameters                     #
##########################################################
*.world.useTorus = false
*.world.use2D = false

##########################################################
#            TraCIScenarioManager parameters             #
##########################################################
*.manager.updateInterval = 0.02s
*.manager.host = "localhost"
*.manager.port = 9999
*.manager.moduleType = "org.car2x.veins.nodes.Car"
*.manager.moduleName = "node"
*.manager.moduleDisplayString = ""
*.manager.autoShutdown = true
*.manager.margin = 25
*.manager.launchConfig = xmldoc("sumo-launchd.launch.xml")

##########################################################
#            11p specific parameters                     #
#                                                        #
#                    NIC-Settings                        #
##########################################################
*.connectionManager.pMax = 20mW
*.connectionManager.sat = -89dBm
*.connectionManager.alpha = 2.0
*.connectionManager.carrierFrequency = 5.890e9 Hz
*.connectionManager.sendDirect = true

*.**.nic.mac1609_4.useServiceChannel = false

*.**.nic.mac1609_4.txPower = 20mW
*.**.nic.mac1609_4.bitrate = 18Mbps

*.**.nic.phy80211p.sensitivity = -89dBm
*.**.nic.phy80211p.useThermalNoise = true
*.**.nic.phy80211p.thermalNoise = -110dBm
*.**.nic.phy80211p.decider = xmldoc("config.xml")
*.**.nic.phy80211p.analogueModels = xmldoc("config.xml")
*.**.nic.phy80211p.usePropagationDelay = true

##########################################################
#                      AppLayer                          #
##########################################################

#*.node[*].applType = "org.car2x.veins.modules.application.traci.TraCITestApp"
#*.node[*].applType = "org.car2x.veins.modules.application.traci.InatisTestApp"
#*.node[*].appl.debug = false
#*.node[*].appl.testNumber = ${0..13}
#*.node[*].appl.testNumber = 1
#*.node[*].appl.maxOffset = 0.5s

##########################################################
#                    WaveAppLayer                        #
##########################################################
#*.node[*].applType = "TraCIDemo11p"
*.node[*].applType = "org.car2x.veins.modules.application.traci.SOTISTestApp"
#*.node[*].applType = "org.car2x.veins.modules.application.traci.DesviaTestApp"
*.node[*].appl.debug = false
*.*.node[*].appl.sendBeacons = false
*.node[*].appl.sendBeacons = false
*.appl.sendBeacons = false
*.sendBeacons = false
*.node[*].appl.headerLength = 256 bit
*.node[*].appl.maxOffset = 1 ms
*.appl.sendBeacons = false
*.node[*].appl.dataOnSch = false
*.node[*].appl.sendData = true
*.node[*].appl.beaconInterval = 1s
*.node[*].appl.beaconPriority = 3
*.node[*].appl.dataPriority = 2
scenario.node[*].appl.maxOffset = 0.002s
*.sotisMsgInterval=10
*.totalSimTime = 40s
#########################################################
#                      Mobility                          #
##########################################################
*.node[*].veinsmobilityType = "org.car2x.veins.modules.mobility.traci.TraCIMobility"
*.node[*].veinsmobility.debug = false
*.node[*].veinsmobility.x = 0
*.node[*].veinsmobility.y = 0
*.node[*].veinsmobility.z = 1.895
*.node[*].veinsmobility.accidentCount = 0

[Config nodebug]
description = "default settings"
**.debug = false
**.coreDebug = false
*.annotations.draw = false

[Config debug]
description = "(very slow!) draw and print additional debug information"
**.debug = true
**.coreDebug = true
*.annotations.draw = true
